/*--------------------------------*- C++ -*----------------------------------*\
  =========                 |
  \\      /  F ield         | OpenFOAM: The Open Source CFD Toolbox
   \\    /   O peration     | Website:  https://openfoam.org
    \\  /    A nd           | Version:  10
     \\/     M anipulation  |
\*---------------------------------------------------------------------------*/
FoamFile
{
    format      binary;
    class       polyBoundaryMesh;
    location    "constant/polyMesh";
    object      boundary;
}
// * * * * * * * * * * * * * * * * * * * * * * * * * * * * * * * * * * * * * //

8
(
    topAndBottom
    {
        type            patch;
        nFaces          24;
        startFace       5971;
    }
    inlet
    {
        type            patch;
        nFaces          0;
        startFace       5995;
    }
    outlet
    {
        type            patch;
        nFaces          32;
        startFace       5995;
    }
    wing
    {
        type            wall;
        inGroups        List<word> 1(wall);
        nFaces          12;
        startFace       6027;
    }
    front
    {
        type            empty;
        inGroups        List<word> 1(empty);
        nFaces          3017;
        startFace       6039;
    }
    back
    {
        type            empty;
        inGroups        List<word> 1(empty);
        nFaces          3017;
        startFace       9056;
    }
    procBoundary3to1
    {
        type            processor;
        inGroups        List<word> 1(processor);
        nFaces          136;
        startFace       12073;
        matchTolerance  0.0001;
        myProcNo        3;
        neighbProcNo    1;
    }
    procBoundary3to2
    {
        type            processor;
        inGroups        List<word> 1(processor);
        nFaces          52;
        startFace       12209;
        matchTolerance  0.0001;
        myProcNo        3;
        neighbProcNo    2;
    }
)

// ************************************************************************* //
