/*--------------------------------*- C++ -*----------------------------------*\
  =========                 |
  \\      /  F ield         | OpenFOAM: The Open Source CFD Toolbox
   \\    /   O peration     | Website:  https://openfoam.org
    \\  /    A nd           | Version:  10
     \\/     M anipulation  |
\*---------------------------------------------------------------------------*/
FoamFile
{
    format      binary;
    class       polyBoundaryMesh;
    location    "constant/polyMesh";
    object      boundary;
}
// * * * * * * * * * * * * * * * * * * * * * * * * * * * * * * * * * * * * * //

8
(
    topAndBottom
    {
        type            patch;
        nFaces          12;
        startFace       5998;
    }
    inlet
    {
        type            patch;
        nFaces          20;
        startFace       6010;
    }
    outlet
    {
        type            patch;
        nFaces          0;
        startFace       6030;
    }
    wing
    {
        type            wall;
        inGroups        List<word> 1(wall);
        nFaces          133;
        startFace       6030;
    }
    front
    {
        type            empty;
        inGroups        List<word> 1(empty);
        nFaces          3018;
        startFace       6163;
    }
    back
    {
        type            empty;
        inGroups        List<word> 1(empty);
        nFaces          3018;
        startFace       9181;
    }
    procBoundary0to1
    {
        type            processor;
        inGroups        List<word> 1(processor);
        nFaces          48;
        startFace       12199;
        matchTolerance  0.0001;
        myProcNo        0;
        neighbProcNo    1;
    }
    procBoundary0to2
    {
        type            processor;
        inGroups        List<word> 1(processor);
        nFaces          58;
        startFace       12247;
        matchTolerance  0.0001;
        myProcNo        0;
        neighbProcNo    2;
    }
)

// ************************************************************************* //
