/*--------------------------------*- C++ -*----------------------------------*\
  =========                 |
  \\      /  F ield         | OpenFOAM: The Open Source CFD Toolbox
   \\    /   O peration     | Website:  https://openfoam.org
    \\  /    A nd           | Version:  10
     \\/     M anipulation  |
\*---------------------------------------------------------------------------*/
FoamFile
{
    format      binary;
    class       polyBoundaryMesh;
    location    "constant/polyMesh";
    object      boundary;
}
// * * * * * * * * * * * * * * * * * * * * * * * * * * * * * * * * * * * * * //

6
(
    maxX
    {
        type            patch;
        nFaces          2560;
        startFace       473714;
    }
    minX
    {
        type            patch;
        nFaces          2560;
        startFace       476274;
    }
    maxY
    {
        type            patch;
        nFaces          5376;
        startFace       478834;
    }
    minY
    {
        type            patch;
        nFaces          5376;
        startFace       484210;
    }
    maxZ
    {
        type            patch;
        nFaces          4430;
        startFace       489586;
    }
    minZ
    {
        type            patch;
        nFaces          4430;
        startFace       494016;
    }
)

// ************************************************************************* //
