/*--------------------------------*- C++ -*----------------------------------*\
  =========                 |
  \\      /  F ield         | OpenFOAM: The Open Source CFD Toolbox
   \\    /   O peration     | Website:  https://openfoam.org
    \\  /    A nd           | Version:  10
     \\/     M anipulation  |
\*---------------------------------------------------------------------------*/
FoamFile
{
    format      binary;
    class       polyBoundaryMesh;
    location    "constant/polyMesh";
    object      boundary;
}
// * * * * * * * * * * * * * * * * * * * * * * * * * * * * * * * * * * * * * //

8
(
    topAndBottom
    {
        type            patch;
        nFaces          12;
        startFace       6474;
    }
    inlet
    {
        type            patch;
        nFaces          20;
        startFace       6486;
    }
    outlet
    {
        type            patch;
        nFaces          0;
        startFace       6506;
    }
    wing
    {
        type            wall;
        inGroups        List<word> 1(wall);
        nFaces          164;
        startFace       6506;
    }
    front
    {
        type            empty;
        inGroups        List<word> 1(empty);
        nFaces          3265;
        startFace       6670;
    }
    back
    {
        type            empty;
        inGroups        List<word> 1(empty);
        nFaces          3265;
        startFace       9935;
    }
    procBoundary2to0
    {
        type            processor;
        inGroups        List<word> 1(processor);
        nFaces          58;
        startFace       13200;
        matchTolerance  0.0001;
        myProcNo        2;
        neighbProcNo    0;
    }
    procBoundary2to3
    {
        type            processor;
        inGroups        List<word> 1(processor);
        nFaces          52;
        startFace       13258;
        matchTolerance  0.0001;
        myProcNo        2;
        neighbProcNo    3;
    }
)

// ************************************************************************* //
