/*--------------------------------*- C++ -*----------------------------------*\
  =========                 |
  \\      /  F ield         | OpenFOAM: The Open Source CFD Toolbox
   \\    /   O peration     | Website:  https://openfoam.org
    \\  /    A nd           | Version:  10
     \\/     M anipulation  |
\*---------------------------------------------------------------------------*/
FoamFile
{
    format      binary;
    class       polyBoundaryMesh;
    location    "constant/polyMesh";
    object      boundary;
}
// * * * * * * * * * * * * * * * * * * * * * * * * * * * * * * * * * * * * * //

8
(
    topAndBottom
    {
        type            patch;
        nFaces          24;
        startFace       6442;
    }
    inlet
    {
        type            patch;
        nFaces          0;
        startFace       6466;
    }
    outlet
    {
        type            patch;
        nFaces          30;
        startFace       6466;
    }
    wing
    {
        type            wall;
        inGroups        List<word> 1(wall);
        nFaces          69;
        startFace       6496;
    }
    front
    {
        type            empty;
        inGroups        List<word> 1(empty);
        nFaces          3265;
        startFace       6565;
    }
    back
    {
        type            empty;
        inGroups        List<word> 1(empty);
        nFaces          3265;
        startFace       9830;
    }
    procBoundary1to0
    {
        type            processor;
        inGroups        List<word> 1(processor);
        nFaces          48;
        startFace       13095;
        matchTolerance  0.0001;
        myProcNo        1;
        neighbProcNo    0;
    }
    procBoundary1to3
    {
        type            processor;
        inGroups        List<word> 1(processor);
        nFaces          136;
        startFace       13143;
        matchTolerance  0.0001;
        myProcNo        1;
        neighbProcNo    3;
    }
)

// ************************************************************************* //
